Data/networks/opendssNetworks/network_4/Feeder_3/Loads - Copy.txt
New Load.LOAD1 Phases=1 Bus1=89.1 kV=0.23 kW=1 PF=0.95
New Load.LOAD2 Phases=1 Bus1=90.3 kV=0.23 kW=1 PF=0.95
New Load.LOAD3 Phases=1 Bus1=93.1 kV=0.23 kW=1 PF=0.95
New Load.LOAD4 Phases=1 Bus1=95.2 kV=0.23 kW=1 PF=0.95
New Load.LOAD5 Phases=1 Bus1=99.3 kV=0.23 kW=1 PF=0.95
New Load.LOAD6 Phases=1 Bus1=107.1 kV=0.23 kW=1 PF=0.95
New Load.LOAD7 Phases=1 Bus1=112.2 kV=0.23 kW=1 PF=0.95
New Load.LOAD8 Phases=1 Bus1=120.3 kV=0.23 kW=1 PF=0.95
New Load.LOAD9 Phases=1 Bus1=125.1 kV=0.23 kW=1 PF=0.95
New Load.LOAD10 Phases=1 Bus1=127.2 kV=0.23 kW=1 PF=0.95
New Load.LOAD11 Phases=1 Bus1=130.3 kV=0.23 kW=1 PF=0.95
New Load.LOAD12 Phases=1 Bus1=178.1 kV=0.23 kW=1 PF=0.95
New Load.LOAD13 Phases=1 Bus1=183.2 kV=0.23 kW=1 PF=0.95
New Load.LOAD14 Phases=1 Bus1=194.3 kV=0.23 kW=1 PF=0.95
New Load.LOAD15 Phases=1 Bus1=212.1 kV=0.23 kW=1 PF=0.95
New Load.LOAD16 Phases=1 Bus1=234.2 kV=0.23 kW=1 PF=0.95
New Load.LOAD17 Phases=1 Bus1=242.3 kV=0.23 kW=1 PF=0.95
